/*--------------------------------*- C++ -*----------------------------------*\
| =========                 |                                                 |
| \\      /  F ield         | foam-extend: Open Source CFD                    |
|  \\    /   O peration     | Version:     4.0                                |
|   \\  /    A nd           | Web:         http://www.foam-extend.org         |
|    \\/     M anipulation  |                                                 |
\*---------------------------------------------------------------------------*/
FoamFile
{
    version     2.0;
    format      ascii;
    class       polyBoundaryMesh;
    location    "constant/polyMesh";
    object      boundary;
}
// * * * * * * * * * * * * * * * * * * * * * * * * * * * * * * * * * * * * * //

4
(
    inlet
    {
        type            patch;
        nFaces          100;
        startFace       19800;
    }
    outlet
    {
        type            patch;
        nFaces          100;
        startFace       19900;
    }
    topAndBottom
    {
        type            patch;
        nFaces          200;
        startFace       20000;
    }
    noFlow
    {
        type            empty;
        nFaces          20000;
        startFace       20200;
    }
)


// ************************************************************************* //
